5
#ch4
          C                  0.00000000    0.00000000    0.00000000
          H                  1.01578458    0.00000000    0.00000000
          H                 -0.33859486    0.95769088    0.00000000
          H                 -0.33859486   -0.47884544    0.82938463
          H                 -0.33859486   -0.47884544   -0.82938463
