648
# CELL(abcABC):   35.23300    35.23300    35.23300    90.00000    90.00000    90.00000  Traj: positions{angstrom} Step:         460  Bead:       0 
       O  2.08002e+00  2.92602e+00  4.03119e-01
       H  1.76366e+00  3.62788e+00 -1.76959e-01
       H  3.03561e+00  3.06461e+00  4.73393e-01
       O  1.83958e+01  1.85583e+01  1.19523e+00
       H  1.86519e+01  1.92728e+01  1.78387e+00
       H  1.87688e+01  1.77491e+01  1.58127e+00
       O  2.89190e+00  1.13441e+00  6.95610e+00
       H  3.82056e+00  8.85197e-01  6.96310e+00
       H  2.88077e+00  2.09159e+00  6.94973e+00
       O  5.67932e-01  1.72838e+00  1.15153e+01
       H  1.77026e-01  8.70578e-01  1.17012e+01
       H  1.03954e-01  2.33967e+00  1.21035e+01
       O  1.10290e+00  8.26936e-01  1.52210e+01
       H  1.17815e+00  7.64136e-01  1.61839e+01
       H  1.98555e+00  1.07940e+00  1.49471e+01
       O  1.61246e+00  4.90223e-01  1.78895e+01
       H  1.86357e+00  1.35113e+00  1.82492e+01
       H  9.10625e-01  2.03156e-01  1.84880e+01
       O  1.63294e+01  5.08374e+00  5.81365e-01
       H  1.65672e+01  5.19534e+00 -3.49949e-01
       H  1.61373e+01  5.97497e+00  8.98522e-01
       O  6.48275e-01  5.26710e+00  2.18985e+00
       H  4.04149e-01  5.21634e+00  1.27643e+00
       H -1.37796e-01  5.57310e+00  2.64861e+00
       O  1.84793e+01  3.80252e+00  4.91477e+00
       H  1.79340e+01  4.44216e+00  4.44738e+00
       H  1.89229e+01  3.32045e+00  4.21672e+00
       O  1.77814e+01  3.36316e+00  1.32337e+01
       H  1.69820e+01  3.73809e+00  1.28682e+01
       H  1.74768e+01  2.57026e+00  1.37069e+01
       O  1.13418e+00  4.73246e+00  1.46098e+01
       H  1.08489e+00  5.57283e+00  1.41318e+01
       H  4.19710e-01  4.21583e+00  1.42169e+01
       O  1.05336e+00  4.93740e+00  1.73781e+01
       H  1.23025e+00  4.82561e+00  1.64339e+01
       H  1.22461e+00  5.87432e+00  1.75549e+01
       O  1.37410e+00  8.76704e+00  1.78615e+00
       H  1.77005e+00  8.42906e+00  2.60269e+00
       H  1.63222e+00  9.68467e+00  1.73216e+00
       O  2.37899e+00  7.99935e+00  4.19078e+00
       H  2.90445e+00  8.78928e+00  4.35984e+00
       H  1.66930e+00  8.01515e+00  4.84859e+00
       O  1.67018e+00  4.99210e+00  8.69628e+00
       H  1.92175e+00  4.44778e+00  9.44816e+00
       H  2.20971e+00  4.68282e+00  7.96665e+00
       O  2.57156e+00  3.56449e+00  1.09488e+01
       H  1.98335e+00  2.80992e+00  1.10418e+01
       H  2.86751e+00  3.71427e+00  1.18584e+01
       O  7.17311e-01  7.00997e+00  1.31423e+01
       H  1.13815e+00  7.88060e+00  1.32156e+01
       H  5.38422e-01  6.89564e+00  1.21999e+01
       O  1.64459e+00  9.51813e+00  1.35516e+01
       H  2.03553e+00  9.35436e+00  1.44198e+01
       H  2.41127e+00  9.70645e+00  1.29857e+01
       O  1.90242e+01  1.13946e+01  3.14750e-01
       H  1.96314e+01  1.16429e+01  1.00685e+00
       H  1.92965e+01  1.19080e+01 -4.49954e-01
       O  2.39496e+00  1.19351e+01  8.27759e+00
       H  2.48016e+00  1.10515e+01  7.88553e+00
       H  2.15666e+00  1.17761e+01  9.20764e+00
       O  1.83550e+01  1.21519e+01  7.70924e+00
       H  1.92815e+01  1.20460e+01  7.95765e+00
       H  1.84200e+01  1.26840e+01  6.90977e+00
       O  6.51244e-01  1.40191e+01  1.15132e+01
       H  6.33324e-01  1.39974e+01  1.24758e+01
       H  1.19146e+00  1.47900e+01  1.13210e+01
       O  1.80429e+01  1.11447e+01  1.30046e+01
       H  1.88605e+01  1.06328e+01  1.30313e+01
       H  1.74780e+01  1.07773e+01  1.23155e+01
       O  1.78664e+01  9.35030e+00  1.74592e+01
       H  1.81925e+01  1.00473e+01  1.80450e+01
       H  1.76729e+01  9.77742e+00  1.66188e+01
       O  2.59298e+00  1.14601e+01  2.18926e+00
       H  3.05356e+00  1.23034e+01  2.15020e+00
       H  2.81320e+00  1.11488e+01  3.07810e+00
       O  2.90579e+00  1.40766e+01  4.84623e+00
       H  2.65238e+00  1.49914e+01  4.66950e+00
       H  3.57620e+00  1.41624e+01  5.53777e+00
       O  4.99310e-01  1.61182e+01  6.81846e+00
       H -2.64088e-01  1.67015e+01  6.94631e+00
       H  1.12348e+00  1.64134e+01  7.49296e+00
       O  3.81541e+00  1.46929e+01  1.33425e+01
       H  4.68719e+00  1.50975e+01  1.34223e+01
       H  3.45600e+00  1.50463e+01  1.25298e+01
       O  1.22393e+00  1.41843e+01  1.42569e+01
       H  2.14832e+00  1.42759e+01  1.40054e+01
       H  9.69677e-01  1.50734e+01  1.45327e+01
       O  9.94161e-01  1.28331e+01  1.66801e+01
       H  1.00814e+00  1.32581e+01  1.58143e+01
       H  1.86810e+00  1.24289e+01  1.67454e+01
       O  6.85668e-01  1.62341e+01  2.21063e+00
       H  1.34826e+00  1.58937e+01  1.58770e+00
       H  1.17841e+00  1.64004e+01  3.02902e+00
       O  1.94617e+00  1.66399e+01  4.56416e+00
       H  1.40288e+00  1.65598e+01  5.36153e+00
       H  2.15959e+00  1.75813e+01  4.49134e+00
       O  2.27459e+00  1.73278e+01  8.56594e+00
       H  3.20073e+00  1.70625e+01  8.47389e+00
       H  2.24615e+00  1.82149e+01  8.20824e+00
       O  2.39558e+00  1.62470e+01  1.12048e+01
       H  2.24845e+00  1.65748e+01  1.03143e+01
       H  2.68751e+00  1.70280e+01  1.16768e+01
       O  8.16619e-01  1.67020e+01  1.53163e+01
       H  1.60485e+00  1.66373e+01  1.58740e+01
       H  8.35733e-01  1.76218e+01  1.50445e+01
       O  3.03995e+00  1.69344e+01  1.68848e+01
       H  3.87455e+00  1.71341e+01  1.64501e+01
       H  2.72640e+00  1.77560e+01  1.72817e+01
       O  4.78518e+00  3.29876e+00  5.26501e-01
       H  4.78192e+00  4.19557e+00  8.88443e-01
       H  5.27896e+00  2.82067e+00  1.20597e+00
       O  7.34791e-01  2.08555e+00  2.73425e+00
       H  1.38303e+00  1.59085e+00  3.25676e+00
       H  1.23913e+00  2.49266e+00  2.01654e+00
       O  5.56181e+00  1.89333e+01  6.82503e+00
       H  6.07374e+00  1.84666e+01  6.14670e+00
       H  6.20125e+00  1.90833e+01  7.54448e+00
       O  3.90942e+00 -2.31369e-01  1.22832e+01
       H  3.76546e+00  2.24497e-01  1.31089e+01
       H  4.50337e+00  3.60298e-01  1.18019e+01
       O  3.87241e+00  1.41504e+00  1.46876e+01
       H  3.77565e+00  2.24375e+00  1.41960e+01
       H  4.36845e+00  1.70614e+00  1.54635e+01
       O  5.58275e+00  2.25582e+00  1.67315e+01
       H  6.14505e+00  1.52992e+00  1.70276e+01
       H  5.29991e+00  2.68460e+00  1.75499e+01
       O  4.73259e+00  5.63962e+00  1.92226e+00
       H  3.97961e+00  5.64525e+00  2.52530e+00
       H  4.73069e+00  6.44485e+00  1.39285e+00
       O  2.81751e+00  5.33254e+00  3.94853e+00
       H  2.06190e+00  5.15617e+00  3.37486e+00
       H  2.73482e+00  6.27996e+00  4.12553e+00
       O  5.33439e+00  2.58334e+00  5.18666e+00
       H  5.51482e+00  1.87612e+00  5.80469e+00
       H  4.63996e+00  3.11080e+00  5.58192e+00
       O  6.01940e+00  1.07069e+00  1.11151e+01
       H  6.62090e+00  7.03339e-01  1.17774e+01
       H  6.29318e+00  1.99318e+00  1.10162e+01
       O  3.45690e+00  3.87098e+00  1.35056e+01
       H  4.08465e+00  4.59219e+00  1.36517e+01
       H  2.64167e+00  4.17289e+00  1.39363e+01
       O  5.46868e+00  7.75570e+00  1.93807e-01
       H  5.43416e+00  7.67648e+00 -7.65463e-01
       H  5.17310e+00  8.65763e+00  3.58423e-01
       O  4.50780e+00  1.03762e+01  5.08875e-01
       H  5.18869e+00  1.10653e+01  5.60273e-01
       H  3.84189e+00  1.06519e+01  1.14618e+00
       O  6.44208e+00  8.41201e+00  5.12551e+00
       H  6.29140e+00  9.34810e+00  4.94848e+00
       H  7.39841e+00  8.37378e+00  5.27460e+00
       O  3.29690e+00  4.03873e+00  6.47791e+00
       H  4.02709e+00  4.55610e+00  6.86017e+00
       H  3.05924e+00  4.48108e+00  5.65201e+00
       O  4.82565e+00  5.06693e+00  1.04007e+01
       H  5.56683e+00  4.46746e+00  1.05927e+01
       H  4.03105e+00  4.55048e+00  1.05648e+01
       O  6.24106e+00  7.09296e+00  1.15967e+01
       H  5.69457e+00  6.39922e+00  1.12103e+01
       H  6.23712e+00  7.76419e+00  1.09172e+01
       O  5.34284e+00  7.81871e+00  1.60277e+01
       H  6.12510e+00  8.31528e+00  1.57550e+01
       H  5.26542e+00  7.12281e+00  1.53620e+01
       O  6.15331e+00  1.25036e+01  7.23097e-01
       H  5.68533e+00  1.28509e+01  1.49366e+00
       H  6.98819e+00  1.21269e+01  1.04605e+00
       O  4.93962e+00  8.05951e+00  7.37233e+00
       H  5.49695e+00  8.36333e+00  8.09854e+00
       H  5.46675e+00  8.18261e+00  6.56702e+00
       O  5.28453e+00  5.40187e+00  7.76334e+00
       H  5.03574e+00  5.28975e+00  8.69561e+00
       H  5.12968e+00  6.34228e+00  7.58558e+00
       O  1.55085e+00  1.14313e+01  1.07535e+01
       H  1.13890e+00  1.22326e+01  1.10964e+01
       H  8.46025e-01  1.07982e+01  1.05651e+01
       O  3.70384e+00  1.01513e+01  1.19038e+01
       H  4.46467e+00  1.07206e+01  1.20502e+01
       H  3.05681e+00  1.06861e+01  1.14326e+01
       O  2.82616e+00  8.95847e+00  1.59702e+01
       H  3.70893e+00  8.56314e+00  1.59500e+01
       H  2.35628e+00  8.48373e+00  1.66661e+01
       O  3.50584e+00  1.04884e+01  4.61944e+00
       H  3.16701e+00  1.03352e+01  5.50989e+00
       H  4.40145e+00  1.08174e+01  4.75758e+00
       O  4.89990e+00  1.45995e+01  6.65108e+00
       H  5.76835e+00  1.46634e+01  6.23270e+00
       H  4.96036e+00  1.38251e+01  7.23656e+00
       O  5.06849e+00  1.25086e+01  8.32083e+00
       H  5.29939e+00  1.29873e+01  9.13799e+00
       H  4.12253e+00  1.23082e+01  8.37807e+00
       O  5.91518e+00  1.38601e+01  1.04830e+01
       H  5.73890e+00  1.47357e+01  1.08265e+01
       H  5.89246e+00  1.32473e+01  1.12284e+01
       O  4.99004e+00  1.33367e+01  1.56305e+01
       H  4.49703e+00  1.36931e+01  1.48912e+01
       H  4.40075e+00  1.27040e+01  1.60634e+01
       O  3.38420e+00  1.14729e+01  1.68866e+01
       H  3.16646e+00  1.06350e+01  1.64563e+01
       H  3.79240e+00  1.11726e+01  1.77070e+01
       O  5.02158e+00  1.61315e+01  1.86839e+00
       H  4.89777e+00  1.69588e+01  2.34893e+00
       H  5.85162e+00  1.62722e+01  1.39598e+00
       O  2.51530e+00  6.31339e-01  4.26872e+00
       H  2.61140e+00  8.57451e-01  5.20408e+00
       H  3.41055e+00  4.55993e-01  3.94582e+00
       O  4.91347e+00  1.67159e+01  8.34386e+00
       H  5.17073e+00  1.74549e+01  7.78247e+00
       H  4.91192e+00  1.59385e+01  7.76245e+00
       O  5.64844e+00  1.65856e+01  1.10106e+01
       H  5.44344e+00  1.66413e+01  1.00692e+01
       H  4.98892e+00  1.71514e+01  1.14193e+01
       O  6.33136e+00  1.57977e+01  1.35968e+01
       H  6.09156e+00  1.64639e+01  1.42539e+01
       H  6.30891e+00  1.62451e+01  1.27455e+01
       O  5.38840e+00  1.76509e+01  1.54732e+01
       H  5.03513e+00  1.84424e+01  1.50705e+01
       H  6.05585e+00  1.79548e+01  1.61011e+01
       O  6.18370e+00  2.20926e+00  2.61517e+00
       H  7.05898e+00  2.61359e+00  2.57260e+00
       H  5.86177e+00  2.45441e+00  3.49665e+00
       O  8.15849e+00  2.64052e+00  7.38726e+00
       H  8.92438e+00  2.10673e+00  7.13087e+00
       H  7.97018e+00  3.18208e+00  6.60947e+00
       O  7.34290e+00  4.44572e-01  8.82610e+00
       H  7.67444e+00  1.29096e+00  8.49517e+00
       H  6.86637e+00  6.48520e-01  9.64641e+00
       O  7.90733e+00  1.33454e-01  1.29146e+01
       H  8.23887e+00 -3.05812e-01  1.37052e+01
       H  8.62787e+00  2.61934e-02  1.22750e+01
       O  1.13133e+01  1.70343e+01  1.31531e+01
       H  1.22224e+01  1.71856e+01  1.28689e+01
       H  1.10996e+01  1.61402e+01  1.28512e+01
       O  7.15724e+00  6.04675e-02  1.73646e+01
       H  8.04013e+00  4.14281e-01  1.72058e+01
       H  7.26928e+00 -5.87495e-01  1.80680e+01
       O  7.97733e+00  6.71853e+00  1.17479e+00
       H  7.20507e+00  7.07857e+00  7.29923e-01
       H  7.63682e+00  6.39969e+00  2.01975e+00
       O  8.17906e+00  4.49205e+00  5.35198e+00
       H  8.95574e+00  4.99127e+00  5.62368e+00
       H  7.61333e+00  5.11053e+00  4.86817e+00
       O  7.92580e+00  5.08780e+00  8.62179e+00
       H  8.20842e+00  4.26147e+00  8.21258e+00
       H  7.04746e+00  5.23258e+00  8.24730e+00
       O  7.02621e+00  3.57343e+00  1.07508e+01
       H  7.52516e+00  4.10721e+00  1.01207e+01
       H  7.59123e+00  3.46876e+00  1.15357e+01
       O  5.24607e+00  5.91893e+00  1.40280e+01
       H  5.93476e+00  5.32752e+00  1.43711e+01
       H  5.62213e+00  6.37638e+00  1.32712e+01
       O  6.97077e+00  4.08992e+00  1.51075e+01
       H  6.56057e+00  3.48690e+00  1.57372e+01
       H  7.82306e+00  4.35460e+00  1.54859e+01
       O  8.50209e+00  1.15002e+01  1.58607e+00
       H  8.66017e+00  1.05818e+01  1.85600e+00
       H  9.14125e+00  1.16973e+01  8.89796e-01
       O  6.80899e+00  6.12910e+00  3.61669e+00
       H  6.56799e+00  6.95696e+00  4.04926e+00
       H  6.03387e+00  5.87271e+00  3.09561e+00
       O  9.13363e+00  8.30351e+00  5.41007e+00
       H  9.15003e+00  7.99883e+00  6.32593e+00
       H  9.89670e+00  8.88587e+00  5.32202e+00
       O  6.82460e+00  8.79150e+00  9.27121e+00
       H  7.58959e+00  8.30886e+00  8.91386e+00
       H  7.20333e+00  9.41079e+00  9.91897e+00
       O  8.55556e+00  8.32306e+00  1.26680e+01
       H  8.26763e+00  8.59057e+00  1.35516e+01
       H  7.84774e+00  7.75526e+00  1.23505e+01
       O  7.63787e+00  9.13109e+00  1.51626e+01
       H  8.35727e+00  9.02658e+00  1.58003e+01
       H  7.48648e+00  1.00823e+01  1.50835e+01
       O  1.03512e+01  1.21616e+01 -3.76506e-01
       H  1.11228e+01  1.18032e+01  8.84288e-02
       H  1.06517e+01  1.30221e+01 -7.00438e-01
       O  6.16193e+00  1.11357e+01  5.15406e+00
       H  6.54059e+00  1.11037e+01  6.04232e+00
       H  6.78144e+00  1.16901e+01  4.66818e+00
       O  5.94851e+00  1.17487e+01  1.22464e+01
       H  6.27003e+00  1.17703e+01  1.31554e+01
       H  6.67160e+00  1.13231e+01  1.17677e+01
       O  1.06108e+01  1.46748e+01  1.19989e+01
       H  1.09286e+01  1.50951e+01  1.11940e+01
       H  1.13271e+01  1.40652e+01  1.22330e+01
       O  8.02774e+00  1.04590e+01  1.10017e+01
       H  8.38273e+00  9.80183e+00  1.16173e+01
       H  8.77029e+00  1.08101e+01  1.05016e+01
       O  6.71268e+00  1.44610e+01  1.75481e+01
       H  6.06328e+00  1.42613e+01  1.68667e+01
       H  6.56839e+00  1.37511e+01  1.81904e+01
       O  4.48455e+00  1.35461e+01  2.67929e+00
       H  3.98174e+00  1.36581e+01  3.49606e+00
       H  4.68737e+00  1.44519e+01  2.41796e+00
       O  7.37752e+00  1.49576e+01  5.53199e+00
       H  8.18856e+00  1.50312e+01  6.03852e+00
       H  7.51715e+00  1.42371e+01  4.90496e+00
       O  7.25517e+00  1.10307e+01  7.68607e+00
       H  6.52073e+00  1.15974e+01  7.97165e+00
       H  7.09045e+00  1.02022e+01  8.14472e+00
       O  8.46378e+00  1.40233e+01  1.37181e+01
       H  9.11909e+00  1.41991e+01  1.30357e+01
       H  7.74136e+00  1.46515e+01  1.35777e+01
       O  7.09550e+00  1.18273e+01  1.47194e+01
       H  7.69594e+00  1.25048e+01  1.43854e+01
       H  6.37517e+00  1.23223e+01  1.51321e+01
       O  2.69046e+00  1.54574e+01  5.43575e-01
       H  3.51485e+00  1.56822e+01  9.83179e-01
       H  2.79065e+00  1.58466e+01 -3.29409e-01
       O  4.98162e+00  1.84716e+01  3.29296e+00
       H  5.67800e+00  1.81116e+01  3.85548e+00
       H  5.39753e+00  1.92512e+01  2.90386e+00
       O  7.01568e+00  1.76002e+01  4.92128e+00
       H  7.90124e+00  1.78556e+01  4.65070e+00
       H  7.08144e+00  1.66457e+01  5.06215e+00
       O  8.88460e+00  1.68270e+01  9.11101e+00
       H  8.32894e+00  1.62745e+01  9.64788e+00
       H  8.35361e+00  1.76201e+01  8.94750e+00
       O  1.00287e+01  1.85046e+01  1.12415e+01
       H  1.05410e+01  1.79499e+01  1.18488e+01
       H  9.85140e+00  1.79585e+01  1.04756e+01
       O  8.99599e+00  1.50982e+01  1.61438e+01
       H  8.21768e+00  1.48466e+01  1.66559e+01
       H  8.87526e+00  1.46526e+01  1.52909e+01
       O  7.40238e+00  1.65624e+01  5.64804e-01
       H  7.23292e+00  1.58186e+01 -2.89274e-02
       H  8.11235e+00  1.62897e+01  1.15324e+00
       O  1.07005e+01  1.67497e+00  3.12085e+00
       H  1.08658e+01  1.85087e+00  2.17887e+00
       H  1.13173e+01  2.19897e+00  3.63537e+00
       O  1.17236e+01  2.92617e+00  5.57601e+00
       H  1.26064e+01  2.87960e+00  5.96615e+00
       H  1.14162e+01  3.81802e+00  5.77655e+00
       O  1.01664e+01  9.92578e-01  6.62688e+00
       H  9.88853e+00  4.98783e-01  5.85278e+00
       H  1.07523e+01  1.68778e+00  6.27836e+00
       O  1.14235e+01  2.20061e+00  1.20841e+01
       H  1.11510e+01  2.40220e+00  1.29848e+01
       H  1.08487e+01  1.48889e+00  1.17929e+01
       O  8.28392e+00  2.88419e+00  1.30333e+01
       H  8.20025e+00  1.93517e+00  1.31454e+01
       H  7.82475e+00  3.27739e+00  1.37837e+01
       O  1.10136e+01  2.61087e+00  1.49484e+01
       H  1.04982e+01  3.39333e+00  1.51830e+01
       H  1.18228e+01  2.66781e+00  1.54715e+01
       O  8.64505e+00  3.44459e+00  2.88687e+00
       H  9.31272e+00  2.75272e+00  2.97780e+00
       H  8.45484e+00  3.74654e+00  3.78756e+00
       O  1.07591e+01  5.50049e+00  5.85400e+00
       H  1.07602e+01  5.55183e+00  4.88672e+00
       H  1.12592e+01  6.25454e+00  6.15743e+00
       O  1.24889e+01  7.70983e+00  6.93602e+00
       H  1.33783e+01  7.98630e+00  6.67438e+00
       H  1.26686e+01  7.05560e+00  7.63100e+00
       O  1.34732e+01  6.24051e+00  1.15751e+01
       H  1.27348e+01  6.74799e+00  1.19237e+01
       H  1.42650e+01  6.75489e+00  1.18032e+01
       O  9.51899e+00  4.72959e+00  1.58971e+01
       H  9.57695e+00  4.77708e+00  1.68625e+01
       H  1.00179e+01  5.49240e+00  1.55778e+01
       O  9.78019e+00  4.86887e+00 -3.27657e-02
       H  1.06204e+01  5.34503e+00 -1.68141e-02
       H  9.14043e+00  5.45805e+00  3.82214e-01
       O  1.07111e+01  5.30463e+00  3.14286e+00
       H  9.97722e+00  4.75627e+00  2.84331e+00
       H  1.15133e+01  4.78181e+00  2.99803e+00
       O  8.82219e+00  8.95599e+00  2.56794e+00
       H  8.59691e+00  8.19690e+00  2.01921e+00
       H  8.88639e+00  8.62339e+00  3.45822e+00
       O  8.95717e+00  7.59503e+00  8.09120e+00
       H  8.79175e+00  6.66638e+00  8.31131e+00
       H  9.73566e+00  7.87510e+00  8.59103e+00
       O  1.43508e+01  9.23884e+00  1.38222e+01
       H  1.50244e+01  9.75285e+00  1.42615e+01
       H  1.35942e+01  9.81034e+00  1.36642e+01
       O  1.10741e+01  6.89702e+00  1.51696e+01
       H  1.19889e+01  6.82529e+00  1.54723e+01
       H  1.11571e+01  7.21498e+00  1.42597e+01
       O  9.86379e+00  8.75823e+00  1.67653e+01
       H  1.02518e+01  8.04778e+00  1.62351e+01
       H  1.03305e+01  9.55003e+00  1.64577e+01
       O  1.25662e+01  1.11102e+01  7.45418e-01
       H  1.28932e+01  1.19128e+01  1.17125e+00
       H  1.31166e+01  1.10010e+01 -4.54733e-02
       O  1.15063e+01  9.61953e+00  4.99472e+00
       H  1.15998e+01  9.04658e+00  4.21844e+00
       H  1.18940e+01  9.10956e+00  5.70502e+00
       O  1.11835e+01  8.90963e+00  9.08212e+00
       H  1.07614e+01  9.76862e+00  8.94719e+00
       H  1.16421e+01  8.67072e+00  8.27022e+00
       O  1.13334e+01  7.89410e+00  1.26384e+01
       H  1.16175e+01  8.80337e+00  1.27711e+01
       H  1.03828e+01  7.96250e+00  1.25024e+01
       O  1.20026e+01  1.05773e+01  1.33347e+01
       H  1.16267e+01  1.07454e+01  1.42065e+01
       H  1.22402e+01  1.14500e+01  1.30006e+01
       O  1.12549e+01  1.09327e+01  1.59793e+01
       H  1.21580e+01  1.07807e+01  1.62905e+01
       H  1.08459e+01  1.14652e+01  1.66731e+01
       O  1.04103e+01  1.40862e+01  4.34452e+00
       H  1.01291e+01  1.47091e+01  3.66003e+00
       H  1.03283e+01  1.45545e+01  5.17285e+00
       O  8.06964e+00  1.27620e+01  3.96163e+00
       H  8.19125e+00  1.23324e+01  3.10514e+00
       H  8.95360e+00  1.31001e+01  4.14665e+00
       O  9.89271e+00  1.54488e+01  6.85300e+00
       H  1.06006e+01  1.60110e+01  6.51481e+00
       H  9.55349e+00  1.59299e+01  7.62148e+00
       O  9.78033e+00  1.12950e+01  8.92821e+00
       H  1.02355e+01  1.21363e+01  8.84002e+00
       H  8.98145e+00  1.13548e+01  8.39244e+00
       O  1.13319e+01  1.36712e+01  8.49252e+00
       H  1.08350e+01  1.41780e+01  7.84696e+00
       H  1.16759e+01  1.43519e+01  9.07823e+00
       O  1.14103e+01  1.44227e+01  1.71909e+01
       H  1.15687e+01  1.49512e+01  1.79843e+01
       H  1.05721e+01  1.47420e+01  1.68216e+01
       O  9.52035e+00  1.59477e+01  2.44593e+00
       H  1.03217e+01  1.59015e+01  1.90236e+00
       H  9.59026e+00  1.67536e+01  2.96449e+00
       O  9.72474e+00  1.80875e+01  4.29453e+00
       H  1.00656e+01  1.88495e+01  3.79301e+00
       H  1.05095e+01  1.76876e+01  4.70345e+00
       O  1.18975e+01  1.80865e+01  8.12770e+00
       H  1.26109e+01  1.86623e+01  8.43059e+00
       H  1.12193e+01  1.86846e+01  7.78890e+00
       O  1.20136e+01  1.59940e+01  9.97996e+00
       H  1.18708e+01  1.66911e+01  9.33123e+00
       H  1.26995e+01  1.63628e+01  1.05449e+01
       O  9.31873e+00  1.75572e+01  1.49869e+01
       H  9.15017e+00  1.67191e+01  1.54362e+01
       H  1.01082e+01  1.74024e+01  1.44514e+01
       O  9.73691e+00  9.57509e-01  1.67382e+01
       H  1.01484e+01  1.58743e+00  1.61324e+01
       H  9.68926e+00  1.65040e-01  1.61878e+01
       O  1.07112e+01  2.24850e+00  4.44866e-01
       H  1.04137e+01  1.73621e+00 -3.09516e-01
       H  1.03272e+01  3.12033e+00  3.11554e-01
       O  1.42222e+01  2.64869e+00  6.65742e+00
       H  1.46253e+01  2.38468e+00  5.82121e+00
       H  1.47619e+01  3.37983e+00  6.99105e+00
       O  1.20947e+01  3.38589e+00  9.52645e+00
       H  1.26244e+01  2.62493e+00  9.30544e+00
       H  1.17364e+01  3.19496e+00  1.03937e+01
       O  1.40510e+01  1.59670e+00  1.17120e+01
       H  1.40331e+01  1.53894e+00  1.07546e+01
       H  1.31314e+01  1.78135e+00  1.19608e+01
       O  1.49051e+01  4.47228e+00  1.51040e+01
       H  1.57727e+01  4.62203e+00  1.54988e+01
       H  1.50324e+01  4.35178e+00  1.41583e+01
       O  1.38260e+01  3.94126e+00  1.90139e+01
       H  1.32566e+01  4.70532e+00  1.88397e+01
       H  1.47256e+01  4.29126e+00  1.90283e+01
       O  1.31740e+01  4.11426e+00  2.99764e+00
       H  1.36576e+01  4.88308e+00  3.30389e+00
       H  1.34246e+01  3.99081e+00  2.06605e+00
       O  1.42760e+01  6.72952e+00  3.79201e+00
       H  1.34257e+01  7.11221e+00  3.52531e+00
       H  1.45587e+01  7.28764e+00  4.52532e+00
       O  1.31790e+01  5.85466e+00  8.84104e+00
       H  1.27244e+01  5.01085e+00  8.96946e+00
       H  1.32919e+01  6.15514e+00  9.75193e+00
       O  1.51145e+01  4.09121e+00  1.23360e+01
       H  1.47282e+01  3.22062e+00  1.21504e+01
       H  1.44254e+01  4.73575e+00  1.21151e+01
       O  1.33274e+01  2.74612e+00  1.64913e+01
       H  1.38883e+01  3.35981e+00  1.59948e+01
       H  1.34258e+01  3.01545e+00  1.74086e+01
       O  1.22473e+01  6.10119e+00  1.85090e+01
       H  1.20040e+01  6.99205e+00  1.87904e+01
       H  1.26992e+01  6.25066e+00  1.76644e+01
       O  1.18612e+01  7.76833e+00  3.01464e+00
       H  1.16334e+01  8.16669e+00  2.16444e+00
       H  1.13244e+01  6.96429e+00  3.02533e+00
       O  1.46112e+01  1.12585e+01  5.66114e+00
       H  1.39205e+01  1.16435e+01  5.10983e+00
       H  1.44080e+01  1.15833e+01  6.54093e+00
       O  1.49307e+01  8.53171e+00  5.93953e+00
       H  1.57028e+01  8.61143e+00  6.50269e+00
       H  1.47599e+01  9.45865e+00  5.72855e+00
       O  1.17246e-01  6.72828e+00  1.04527e+01
       H -6.38819e-01  6.12917e+00  1.04201e+01
       H  7.69243e-01  6.31663e+00  9.88547e+00
       O  1.35913e+01  6.61005e+00  1.62196e+01
       H  1.42474e+01  7.25430e+00  1.65046e+01
       H  1.40805e+01  5.91978e+00  1.57543e+01
       O  1.14000e+01  8.63073e+00  4.50712e-01
       H  1.17844e+01  9.50779e+00  5.57701e-01
       H  1.07491e+01  8.70628e+00 -2.58041e-01
       O  1.33316e+01  1.34976e+01  1.86049e+00
       H  1.42566e+01  1.37587e+01  1.76165e+00
       H  1.32227e+01  1.31256e+01  2.74273e+00
       O  1.24581e+01  1.21848e+01  4.19835e+00
       H  1.20401e+01  1.13378e+01  4.38617e+00
       H  1.17545e+01  1.28355e+01  4.29323e+00
       O  1.38196e+01  9.76544e+00  9.58345e+00
       H  1.37932e+01  1.05570e+01  9.05098e+00
       H  1.29151e+01  9.45441e+00  9.64052e+00
       O  1.37806e+01  1.23360e+01  8.17613e+00
       H  1.43560e+01  1.30676e+01  7.88196e+00
       H  1.29006e+01  1.27313e+01  8.19751e+00
       O  1.60305e+01  1.05388e+01  1.11243e+01
       H  1.56837e+01  1.14363e+01  1.10675e+01
       H  1.53123e+01  1.00286e+01  1.07355e+01
       O  1.37782e+01  1.06551e+01  1.70246e+01
       H  1.43752e+01  1.13156e+01  1.66556e+01
       H  1.43056e+01  9.85355e+00  1.71603e+01
       O  1.18306e+01  1.56348e+01  9.90648e-01
       H  1.23541e+01  1.48980e+01  1.33995e+00
       H  1.24216e+01  1.63986e+01  1.01334e+00
       O  1.56468e+01  1.62796e+01  5.30370e+00
       H  1.62150e+01  1.58451e+01  4.65520e+00
       H  1.50434e+01  1.68269e+01  4.78978e+00
       O  1.62984e+01  1.88558e+01  9.54070e+00
       H  1.65376e+01  1.83258e+01  8.76743e+00
       H  1.68040e+01  1.96749e+01  9.42821e+00
       O  1.48104e+01  1.29861e+01  1.07045e+01
       H  1.56320e+01  1.34175e+01  1.04406e+01
       H  1.43925e+01  1.27473e+01  9.87280e+00
       O  1.27811e+01  1.31484e+01  1.26657e+01
       H  1.35520e+01  1.31688e+01  1.20853e+01
       H  1.30556e+01  1.35323e+01  1.35077e+01
       O  1.53854e+01  1.25166e+01  1.58166e+01
       H  1.46380e+01  1.31159e+01  1.56399e+01
       H  1.59525e+01  1.29841e+01  1.64570e+01
       O  1.35184e+01  1.78102e+01  1.20887e+00
       H  1.44174e+01  1.76252e+01  8.98012e-01
       H  1.32705e+01  1.86232e+01  7.85146e-01
       O  1.18424e+01  1.70202e+01  5.61885e+00
       H  1.20486e+01  1.74287e+01  6.47234e+00
       H  1.25779e+01  1.72709e+01  5.04623e+00
       O  1.38677e+01  1.20947e+00  8.92130e+00
       H  1.40438e+01  1.68974e+00  8.09437e+00
       H  1.47083e+01  7.54803e-01  9.10054e+00
       O  1.37003e+01  1.73966e+01  1.17913e+01
       H  1.39279e+01  1.83288e+01  1.18561e+01
       H  1.44935e+01  1.69185e+01  1.20621e+01
       O  1.59212e+01  1.60966e+01  1.28292e+01
       H  1.62209e+01  1.51823e+01  1.29028e+01
       H  1.55496e+01  1.62778e+01  1.37053e+01
       O  1.33409e+01  1.41796e+01  1.52058e+01
       H  1.37741e+01  1.50468e+01  1.52207e+01
       H  1.26479e+01  1.42470e+01  1.58756e+01
       O  1.67118e+01  3.00023e+00  2.45557e+00
       H  1.66708e+01  3.67946e+00  1.78080e+00
       H  1.76249e+01  2.71712e+00  2.49402e+00
       O  1.46609e+01  1.99917e+00  4.00003e+00
       H  1.40378e+01  2.66968e+00  3.69834e+00
       H  1.54593e+01  2.22777e+00  3.50584e+00
       O  1.75403e+01  1.75384e+00  6.55086e+00
       H  1.78387e+01  2.43526e+00  5.94537e+00
       H  1.77295e+01  2.09408e+00  7.42907e+00
       O  1.78615e+01  2.42091e+00  9.25533e+00
       H  1.75029e+01  3.26162e+00  9.56727e+00
       H  1.84485e+01  2.14684e+00  9.97146e+00
       O  1.71086e+01  1.01934e+00  1.43545e+01
       H  1.71331e+01  4.95892e-01  1.35415e+01
       H  1.79896e+01  9.30862e-01  1.47369e+01
       O  1.45034e+01  5.22637e-01  1.52964e+01
       H  1.40968e+01  1.25863e+00  1.57591e+01
       H  1.53828e+01  8.11225e-01  1.50392e+01
       O  1.55860e+01  7.58298e+00  1.51697e+00
       H  1.50171e+01  7.35141e+00  2.25573e+00
       H  1.62918e+01  8.09518e+00  1.93257e+00
       O  1.55409e+01  4.74071e+00  7.83947e+00
       H  1.62836e+01  5.23979e+00  7.47960e+00
       H  1.48244e+01  5.34260e+00  8.07887e+00
       O  1.81443e+01  5.53147e+00  7.06733e+00
       H  1.88114e+01  5.30387e+00  7.72577e+00
       H  1.83153e+01  4.92718e+00  6.33625e+00
       O  1.68003e+01  4.74781e+00  1.02259e+01
       H  1.61577e+01  4.58951e+00  1.09240e+01
       H  1.62842e+01  4.78801e+00  9.40581e+00
       O  1.57485e+01  7.49581e+00  1.23193e+01
       H  1.52196e+01  8.20893e+00  1.27077e+01
       H  1.62510e+01  7.20389e+00  1.30786e+01
       O  1.70875e+01  5.32043e+00  1.65997e+01
       H  1.80048e+01  5.12061e+00  1.68223e+01
       H  1.71344e+01  6.09206e+00  1.60170e+01
       O  1.75681e+01  8.74202e+00  3.06186e+00
       H  1.83965e+01  8.83198e+00  2.57475e+00
       H  1.74714e+01  9.55769e+00  3.56880e+00
       O  1.71853e+01  6.07515e+00  3.82761e+00
       H  1.62353e+01  6.03847e+00  3.77478e+00
       H  1.73904e+01  7.01546e+00  3.76531e+00
       O  5.25487e-01  7.95527e+00  6.24606e+00
       H  1.95289e-01  7.08590e+00  6.50432e+00
       H -1.66903e-01  8.55535e+00  6.55812e+00
       O  2.65681e+00  9.53634e+00  7.05543e+00
       H  1.91844e+00  8.93187e+00  6.92029e+00
       H  3.42246e+00  8.97312e+00  7.24106e+00
       O  1.71622e+01  7.31789e+00  1.47226e+01
       H  1.69612e+01  8.24473e+00  1.48491e+01
       H  1.79687e+01  7.28072e+00  1.41873e+01
       O  1.30751e+00  7.63611e+00  1.78886e+01
       H  5.21930e-01  8.15254e+00  1.76589e+01
       H  1.47391e+00  7.91468e+00  1.87967e+01
       O  1.72293e+01  1.11025e+01  4.57187e+00
       H  1.77073e+01  1.19024e+01  4.74704e+00
       H  1.63530e+01  1.12335e+01  4.94254e+00
       O  2.08537e-01  1.36858e+01  5.50368e+00
       H  1.13796e+00  1.35886e+01  5.25971e+00
       H  2.20321e-01  1.44851e+01  6.05079e+00
       O  1.72727e+01  9.50208e+00  7.44358e+00
       H  1.74867e+01  1.04232e+01  7.28249e+00
       H  1.75869e+01  9.38437e+00  8.34756e+00
       O -3.45409e-01  9.46427e+00  1.00164e+01
       H -1.20052e+00  9.72509e+00  1.03852e+01
       H -2.31047e-01  8.52856e+00  1.02221e+01
       O  1.66935e+01  1.01997e+01  1.51041e+01
       H  1.62590e+01  1.10037e+01  1.54094e+01
       H  1.72389e+01  1.05124e+01  1.43600e+01
       O  1.52704e+01  8.42641e+00  1.75625e+01
       H  1.61896e+01  8.70714e+00  1.74831e+01
       H  1.52199e+01  8.14774e+00  1.84845e+01
       O  1.59012e+01  1.44688e+01  1.31811e+00
       H  1.64118e+01  1.44742e+01  2.13770e+00
       H  1.59083e+01  1.53934e+01  1.04571e+00
       O  1.73610e+01  1.49438e+01  3.58272e+00
       H  1.78718e+01  1.44219e+01  4.21224e+00
       H  1.80322e+01  1.53996e+01  3.05354e+00
       O  1.54049e+01  1.43523e+01  7.40617e+00
       H  1.60832e+01  1.45221e+01  8.05968e+00
       H  1.54654e+01  1.50351e+01  6.73670e+00
       O  1.72189e+01  1.38501e+01  9.60352e+00
       H  1.78883e+01  1.39980e+01  1.02781e+01
       H  1.76126e+01  1.32111e+01  8.99660e+00
       O  1.66238e+01  1.35077e+01  1.34948e+01
       H  1.72407e+01  1.28127e+01  1.32606e+01
       H  1.61992e+01  1.31965e+01  1.42924e+01
       O  1.70790e+01  1.37687e+01  1.74989e+01
       H  1.68502e+01  1.38189e+01  1.84348e+01
       H  1.79861e+01  1.34546e+01  1.74314e+01
       O  1.60916e+01  1.71443e+01  4.92887e-01
       H  1.63913e+01  1.69690e+01 -4.08239e-01
       H  1.67840e+01  1.77218e+01  8.33350e-01
       O  1.38734e+01  1.79684e+01  3.96021e+00
       H  1.41617e+01  1.88872e+01  4.03168e+00
       H  1.37320e+01  1.78584e+01  3.01287e+00
       O  1.70203e+01  1.77772e+01  7.12147e+00
       H  1.72012e+01  1.86707e+01  6.78713e+00
       H  1.64676e+01  1.73466e+01  6.45501e+00
       O  1.74139e+01  1.82507e+01  1.19959e+01
       H  1.70475e+01  1.74041e+01  1.22802e+01
       H  1.69774e+01  1.84075e+01  1.11492e+01
       O  1.71006e+01  1.63490e+01  1.67037e+01
       H  1.79202e+01  1.65194e+01  1.62245e+01
       H  1.71541e+01  1.54158e+01  1.69608e+01
       O  1.48074e+01  1.64834e+01  1.52625e+01
       H  1.56248e+01  1.64451e+01  1.57809e+01
       H  1.45625e+01  1.74230e+01  1.52904e+01
