12
# benzene
C                     0.000000    1.391862    0.000000
C                     1.205388    0.695931    0.000000
C                     1.205388   -0.695931    0.000000
C                     0.000000   -1.391862    0.000000
C                    -1.205388   -0.695931    0.000000
C                    -1.205388    0.695931    0.000000
H                     0.000000    2.475623    0.000000
H                     2.143952    1.237811    0.000000
H                     2.143952   -1.237811    0.000000
H                     0.000000   -2.475623    0.000000
H                    -2.143952   -1.237811    0.000000
H                    -2.143952    1.237811    0.000000
